Circuit: * Z:\home\fabio\Projects\mattia\circuit-theory\bistable.asc

Instance "m:u1:6": Length shorter than recommended for a level 2 MOSFET.
Instance "m:u1:5": Length shorter than recommended for a level 2 MOSFET.
Direct Newton iteration for .op point succeeded.
Heightened Def Con from 0.006 +++++to 0.006
Heightened Def Con from 0.006 ++to 0.006
Heightened Def Con from 0.006 to 0.006

Date: Sat Jan 08 14:15:50 2022
Total elapsed time: 0.232 seconds.

tnom = 27
temp = 27
method = modified trap
totiter = 5687
traniter = 5664
tranpoints = 2729
accept = 2410
rejected = 329
matrix size = 44
fillins = 23
solver = Normal
Matrix Compiler1: 3.33 KB object code size  2.9/1.4/[1.0]
Matrix Compiler2: 4.14 KB object code size  1.3/2.3/[0.9]

